examples/dss/plant/plant_VLN_Node.Txt

LINE-GROUND and LINE-LINE VOLTAGES BY BUS & NODE

Bus       Node    VLN (kV)   Angle      pu     Base kV    Node-Node   VLL (kV)  Angle      pu

SOURCEBUS 1       86.602 /_    0.0         1   150.000        1-2        150 /_   30.0         1
   -      2       86.602 /_ -120.0         1   150.000        2-3        150 /_  -90.0         1
   -      3       86.602 /_  120.0         1   150.000        3-1        150 /_  150.0         1
   -      4   5.6336E-009 /_   60.0 6.5051E-011   150.000
B2 ...... 1       20.777 /_  -30.0   0.99965    36.000        1-2     35.987 /_    0.0   0.99965
   -      2       20.777 /_ -150.0   0.99965    36.000        2-3     35.987 /_ -120.0   0.99965
   -      3       20.777 /_   90.0   0.99965    36.000        3-1     35.987 /_  120.0   0.99965
B3 ...... 1       20.774 /_  -30.0   0.99951    36.000        1-2     35.982 /_    0.0   0.99951
   -      2       20.774 /_ -150.0   0.99951    36.000        2-3     35.982 /_ -120.0    0.9995
   -      3       20.774 /_   90.0    0.9995    36.000        3-1     35.982 /_  120.0   0.99951
B4 ...... 1       5.7582 /_  -30.1   0.99735    10.000        1-2     9.9735 /_   -0.1   0.99735
   -      2       5.7582 /_ -150.1   0.99735    10.000        2-3     9.9735 /_ -120.1   0.99735
   -      3       5.7582 /_   89.9   0.99735    10.000        3-1     9.9735 /_  119.9   0.99735
B5 ...... 1       5.7582 /_  -30.1   0.99735    10.000        1-2     9.9735 /_   -0.1   0.99735
   -      2       5.7582 /_ -150.1   0.99735    10.000        2-3     9.9735 /_ -120.1   0.99735
   -      3       5.7582 /_   89.9   0.99735    10.000        3-1     9.9735 /_  119.9   0.99735
B6 ...... 1      0.39732 /_  -60.1   0.99735     0.690        1-2    0.68818 /_  -30.1   0.99736
   -      2      0.39732 /_  179.9   0.99736     0.690        2-3    0.68817 /_ -150.1   0.99735
   -      3      0.39732 /_   59.9   0.99735     0.690        3-1    0.68817 /_   89.9   0.99735
B7 ...... 1      0.39747 /_  -60.1   0.99773     0.690        1-2    0.68843 /_  -30.1   0.99773
   -      2      0.39747 /_  179.9   0.99773     0.690        2-3    0.68843 /_ -150.1   0.99773
   -      3      0.39747 /_   59.9   0.99773     0.690        3-1    0.68843 /_   89.9   0.99773
B8 ...... 1      0.23042 /_  -90.1   0.99773     0.400        1-2    0.39909 /_  -60.1   0.99773
   -      2      0.23042 /_  149.9   0.99773     0.400        2-3    0.39909 /_  179.9   0.99773
   -      3      0.23042 /_   29.9   0.99773     0.400        3-1    0.39909 /_   59.9   0.99773
